<?xml version="1.0" encoding="UTF-8"?>

<!-- generated on Thu Nov 24 20:02:51 2016 by SUMO polyconvert Version 0.19.0
<?xml version="1.0" encoding="UTF-8"?>

<configuration xmlns:xsi="http://www.w3.org/2001/XMLSchema-instance" xsi:noNamespaceSchemaLocation="http://sumo-sim.org/xsd/polyconvertConfiguration.xsd">

    <input>
        <net-file value="map.net.xml"/>
        <osm-files value="map.osm"/>
        <type-file value="typemap.xml"/>
    </input>

    <output>
        <output-file value="map.poly.xml"/>
    </output>

</configuration>
-->

<shapes>
    <poly id="128220238" type="building" color="255,230,230" fill="1" layer="-1.00" shape="2344.92,271.71 2359.09,276.30 2362.50,265.87 2381.35,271.98 2378.59,280.40 2377.85,282.65 2390.71,286.82 2401.43,254.13 2388.66,249.99 2385.88,258.49 2367.47,252.53 2370.96,241.92 2356.24,237.15 2344.92,271.71"/>
    <poly id="164040899" type="water" color="181,209,209" fill="0" layer="-4.00" shape="2254.99,-222.59 2313.09,-170.03 2392.49,-135.10 2454.93,1.09 2456.60,7.42 2490.17,134.69 2504.88,221.15 2473.01,274.17"/>
    <poly id="201072740" type="tourism" color="207,245,201" fill="1" layer="-2.00" shape="2028.35,285.71 2126.11,297.97 2032.80,306.02 2028.35,285.71"/>
    <poly id="230188170" type="water" color="181,209,209" fill="0" layer="-4.00" shape="2489.56,338.53 2506.13,342.21 2543.99,350.60 2570.34,356.45 2680.83,373.66"/>
    <poly id="230188171" type="water" color="181,209,209" fill="0" layer="-4.00" shape="23.51,952.88 47.36,955.74 89.77,967.16 110.76,964.77 155.22,965.47 162.24,997.46 176.96,1015.15 190.12,1053.88 204.93,1082.52 223.71,1106.08 253.26,1138.38 283.68,1155.76 320.77,1166.04 392.92,1173.29 430.14,1182.75 488.31,1210.93 559.06,1213.38 582.97,1225.16 615.47,1234.42 627.78,1243.15 647.82,1267.65 676.59,1263.64 718.11,1254.07 741.47,1245.31 739.23,1207.63 797.01,1194.50 871.39,1183.73 896.93,1179.90 913.13,1185.28 949.77,1195.94 964.86,1200.32 1084.82,1187.60 1115.12,1178.12 1209.56,1133.56 1284.22,1109.78 1319.13,1107.17 1355.63,1099.12 1437.13,1074.41 1462.63,1047.53 1487.82,1034.20 1516.71,1028.66 1560.07,1034.36 1585.79,1036.81 1661.03,1011.62 1688.82,997.26 1740.89,935.60 1745.95,925.30 1748.71,888.67 1754.92,867.19 1776.27,847.30 1795.74,841.65 1832.32,843.54 1885.15,821.00 2039.52,746.77 2271.40,585.48 2284.97,570.95 2300.82,552.27 2362.02,466.95 2412.52,387.34"/>
    <poly id="243553544" type="commercial" color="209,209,204" fill="1" layer="-3.00" shape="2456.60,7.42 2490.17,134.69 2504.88,221.15 2514.47,226.81 2580.84,111.23 2600.61,76.87 2639.54,4.95 2720.38,-118.04 2686.10,-127.02 2636.71,-75.66 2456.60,7.42"/>
    <poly id="245806441" type="commercial" color="209,209,204" fill="1" layer="-3.00" shape="2434.22,262.16 2464.09,276.14 2468.66,288.16 2462.33,295.35 2409.56,323.51 2387.48,326.33 2158.14,250.61 2155.76,183.30 2195.98,174.88 2203.60,209.97 2373.63,179.95 2434.22,262.16"/>
    <poly id="27994476" type="water" color="181,209,209" fill="0" layer="-4.00" shape="1795.88,102.46 1792.81,128.36 1817.62,163.80 1846.07,207.62 1853.61,220.36 1902.47,223.17 1978.47,224.88 2041.62,225.36 2146.86,232.93 2218.42,253.11 2451.01,331.23"/>
    <poly id="27994478" type="water" color="181,209,209" fill="0" layer="-4.00" shape="2451.01,331.23 2489.56,338.53"/>
    <poly id="27994497" type="water" color="181,209,209" fill="0" layer="-4.00" shape="2412.52,387.34 2451.01,331.23"/>
    <poly id="333728072" type="building" color="255,230,230" fill="1" layer="-1.00" shape="2341.59,400.28 2352.27,381.30 2369.10,366.25 2378.63,357.71 2360.75,343.02 2339.59,334.39 2334.21,353.59 2330.58,374.92 2327.77,383.88 2327.37,385.18 2325.56,390.95 2324.58,394.07 2341.59,400.28"/>
    <poly id="333728073" type="building" color="255,230,230" fill="1" layer="-1.00" shape="2259.74,373.55 2321.17,392.32 2336.56,335.52 2270.00,312.24 2256.33,353.87 2259.74,373.55"/>
    <poly id="343430717" type="building" color="255,230,230" fill="1" layer="-1.00" shape="2622.71,273.80 2640.20,279.18 2643.26,269.36 2625.77,263.98 2622.71,273.80"/>
    <poly id="343430718" type="building" color="255,230,230" fill="1" layer="-1.00" shape="2627.01,257.79 2640.75,262.49 2646.92,244.69 2633.17,239.99 2627.01,257.79"/>
    <poly id="343430719" type="building" color="255,230,230" fill="1" layer="-1.00" shape="2643.28,280.71 2652.74,283.40 2655.77,272.88 2646.31,270.20 2643.28,280.71"/>
    <poly id="347583984" type="building" color="255,230,230" fill="1" layer="-1.00" shape="2132.97,313.72 2170.63,309.85 2167.93,283.90 2156.89,285.02 2157.59,291.73 2130.96,294.46 2132.97,313.72"/>
    <poly id="347583989" type="building" color="255,230,230" fill="1" layer="-1.00" shape="2151.54,193.28 2137.82,193.38 2138.02,220.09 2151.76,219.99 2151.54,193.28"/>
    <poly id="347583994" type="building" color="255,230,230" fill="1" layer="-1.00" shape="2079.64,520.54 2095.47,519.45 2094.23,501.87 2078.42,502.96 2079.64,520.54"/>
    <poly id="347583997" type="building" color="255,230,230" fill="1" layer="-1.00" shape="2141.22,360.37 2160.03,358.63 2158.72,344.70 2139.92,346.45 2141.22,360.37"/>
    <poly id="347584002" type="building" color="255,230,230" fill="1" layer="-1.00" shape="2168.64,434.63 2184.91,434.11 2184.43,419.28 2168.17,419.79 2168.64,434.63"/>
    <poly id="347584008" type="building" color="255,230,230" fill="1" layer="-1.00" shape="2191.80,306.61 2217.96,306.73 2218.04,286.43 2191.88,286.31 2191.80,306.61"/>
    <poly id="347584019" type="building" color="255,230,230" fill="1" layer="-1.00" shape="2155.65,496.92 2155.87,511.75 2169.23,511.57 2169.12,504.75 2168.14,504.76 2168.04,497.60 2169.01,497.57 2168.91,491.10 2164.94,491.16 2165.02,496.78 2155.65,496.92"/>
    <poly id="347584023" type="building" color="255,230,230" fill="1" layer="-1.00" shape="2146.84,438.50 2147.61,453.19 2170.01,452.03 2169.24,437.34 2146.84,438.50"/>
    <poly id="347584027" type="building" color="255,230,230" fill="1" layer="-1.00" shape="2092.71,475.38 2094.79,496.45 2105.05,495.46 2102.97,474.38 2092.71,475.38"/>
    <poly id="347584029" type="building" color="255,230,230" fill="1" layer="-1.00" shape="2086.34,446.33 2106.86,444.83 2105.87,431.52 2085.35,433.01 2086.34,446.33"/>
    <poly id="347584030" type="building" color="255,230,230" fill="1" layer="-1.00" shape="2075.28,262.08 2040.88,260.50 2040.04,278.62 2074.45,280.20 2075.28,262.08"/>
    <poly id="347584046" type="building" color="255,230,230" fill="1" layer="-1.00" shape="2077.46,499.80 2091.55,498.70 2089.75,476.13 2075.66,477.24 2077.46,499.80"/>
    <poly id="347584052" type="building" color="255,230,230" fill="1" layer="-1.00" shape="2170.57,436.46 2172.13,452.42 2193.45,450.37 2191.90,434.40 2170.57,436.46"/>
    <poly id="347584054" type="building" color="255,230,230" fill="1" layer="-1.00" shape="2198.03,323.17 2219.66,322.51 2219.27,310.27 2197.64,310.94 2198.03,323.17"/>
    <poly id="347584059" type="building" color="255,230,230" fill="1" layer="-1.00" shape="2205.62,414.35 2224.88,413.06 2224.05,400.82 2204.80,402.11 2205.62,414.35"/>
    <poly id="347584066" type="building" color="255,230,230" fill="1" layer="-1.00" shape="2218.01,534.79 2237.91,532.74 2236.49,518.99 2216.57,521.03 2218.01,534.79"/>
    <poly id="347584068" type="building" color="255,230,230" fill="1" layer="-1.00" shape="2151.64,490.32 2165.52,489.33 2163.90,467.19 2150.04,468.18 2151.64,490.32"/>
    <poly id="347584069" type="building" color="255,230,230" fill="1" layer="-1.00" shape="2146.40,436.90 2165.88,435.85 2165.08,421.22 2145.60,422.27 2146.40,436.90"/>
    <poly id="347584080" type="building" color="255,230,230" fill="1" layer="-1.00" shape="2097.13,537.89 2099.10,557.93 2113.23,556.56 2111.27,536.52 2097.13,537.89"/>
    <poly id="347584086" type="building" color="255,230,230" fill="1" layer="-1.00" shape="2073.20,179.66 2073.23,192.85 2085.73,192.82 2085.70,179.63 2073.20,179.66"/>
    <poly id="347584097" type="building" color="255,230,230" fill="1" layer="-1.00" shape="2213.62,476.28 2235.82,475.21 2235.03,458.97 2212.83,460.03 2213.62,476.28"/>
    <poly id="347584100" type="building" color="255,230,230" fill="1" layer="-1.00" shape="2239.21,192.58 2247.15,192.25 2246.69,181.08 2238.75,181.39 2239.21,192.58"/>
    <poly id="347584115" type="building" color="255,230,230" fill="1" layer="-1.00" shape="2188.38,528.95 2174.67,528.94 2174.67,544.64 2188.38,544.63 2188.38,528.95"/>
    <poly id="347584137" type="building" color="255,230,230" fill="1" layer="-1.00" shape="2196.69,464.38 2183.72,464.80 2184.42,486.09 2197.39,485.67 2196.69,464.38"/>
    <poly id="347584156" type="building" color="255,230,230" fill="1" layer="-1.00" shape="2114.11,533.97 2114.92,555.82 2127.19,555.38 2126.38,533.52 2114.11,533.97"/>
    <poly id="347584163" type="building" color="255,230,230" fill="1" layer="-1.00" shape="2091.67,260.97 2092.12,284.64 2105.00,284.39 2104.55,260.72 2091.67,260.97"/>
    <poly id="347584184" type="building" color="255,230,230" fill="1" layer="-1.00" shape="2143.51,531.24 2129.25,531.43 2129.54,554.36 2143.80,554.17 2143.51,531.24"/>
    <poly id="347584199" type="building" color="255,230,230" fill="1" layer="-1.00" shape="2197.08,336.77 2217.25,336.09 2216.91,325.92 2196.73,326.60 2197.08,336.77"/>
    <poly id="347584207" type="building" color="255,230,230" fill="1" layer="-1.00" shape="2138.43,376.96 2161.12,374.80 2159.75,360.61 2137.05,362.76 2138.43,376.96"/>
    <poly id="347584215" type="building" color="255,230,230" fill="1" layer="-1.00" shape="2063.75,501.96 2048.29,503.04 2050.13,528.96 2065.59,527.88 2063.75,501.96"/>
    <poly id="347584222" type="building" color="255,230,230" fill="1" layer="-1.00" shape="2169.79,490.69 2171.13,510.27 2181.72,509.56 2180.37,489.96 2169.79,490.69"/>
    <poly id="347584230" type="building" color="255,230,230" fill="1" layer="-1.00" shape="2228.61,182.73 2229.15,193.60 2236.13,193.26 2235.60,182.39 2228.61,182.73"/>
    <poly id="347584252" type="building" color="255,230,230" fill="1" layer="-1.00" shape="2105.09,427.06 2127.44,425.81 2126.64,411.98 2104.31,413.23 2105.09,427.06"/>
    <poly id="347584261" type="building" color="255,230,230" fill="1" layer="-1.00" shape="2229.55,381.70 2231.24,406.87 2251.68,405.52 2249.99,380.35 2229.55,381.70"/>
    <poly id="347584267" type="building" color="255,230,230" fill="1" layer="-1.00" shape="2167.93,488.90 2182.37,487.68 2180.48,465.63 2166.05,466.85 2167.93,488.90"/>
    <poly id="347584269" type="building" color="255,230,230" fill="1" layer="-1.00" shape="2099.08,199.23 2098.41,216.28 2109.70,216.72 2110.37,199.66 2099.08,199.23"/>
    <poly id="347584276" type="building" color="255,230,230" fill="1" layer="-1.00" shape="2122.35,472.98 2123.58,492.75 2135.46,492.03 2134.22,472.24 2122.35,472.98"/>
    <poly id="347584283" type="building" color="255,230,230" fill="1" layer="-1.00" shape="2088.54,459.76 2107.55,458.81 2106.95,446.76 2087.93,447.69 2088.54,459.76"/>
    <poly id="347584289" type="building" color="255,230,230" fill="1" layer="-1.00" shape="2089.43,301.83 2090.95,320.28 2114.72,318.34 2113.20,299.89 2089.43,301.83"/>
    <poly id="347584300" type="building" color="255,230,230" fill="1" layer="-1.00" shape="2106.80,474.95 2107.96,495.68 2122.55,494.87 2121.38,474.15 2106.80,474.95"/>
    <poly id="347584302" type="building" color="255,230,230" fill="1" layer="-1.00" shape="2088.00,174.02 2087.61,195.73 2097.80,195.91 2098.18,174.19 2088.00,174.02"/>
    <poly id="347584313" type="building" color="255,230,230" fill="1" layer="-1.00" shape="2198.44,352.09 2220.08,350.87 2219.34,337.65 2197.69,338.86 2198.44,352.09"/>
    <poly id="347584332" type="building" color="255,230,230" fill="1" layer="-1.00" shape="2123.88,270.83 2111.42,270.85 2111.47,288.50 2123.92,288.46 2123.88,270.83"/>
    <poly id="347584336" type="building" color="255,230,230" fill="1" layer="-1.00" shape="2102.08,351.69 2102.51,365.92 2123.58,365.30 2123.16,351.08 2102.08,351.69"/>
    <poly id="347584342" type="building" color="255,230,230" fill="1" layer="-1.00" shape="2108.84,441.24 2124.37,440.10 2124.57,442.81 2129.56,442.44 2129.14,436.76 2126.80,436.92 2126.08,427.23 2107.90,428.56 2108.84,441.24"/>
    <poly id="347584347" type="building" color="255,230,230" fill="1" layer="-1.00" shape="2226.30,352.31 2227.76,377.59 2248.31,376.41 2246.85,351.14 2226.30,352.31"/>
    <poly id="347584363" type="building" color="255,230,230" fill="1" layer="-1.00" shape="2156.52,343.12 2180.58,341.89 2179.80,326.95 2155.75,328.19 2156.52,343.12"/>
    <poly id="347584382" type="building" color="255,230,230" fill="1" layer="-1.00" shape="2124.90,496.19 2126.34,516.90 2138.69,516.05 2137.25,495.35 2124.90,496.19"/>
    <poly id="347584384" type="building" color="255,230,230" fill="1" layer="-1.00" shape="2087.59,198.15 2086.92,215.52 2096.91,215.90 2097.58,198.52 2087.59,198.15"/>
    <poly id="347584403" type="building" color="255,230,230" fill="1" layer="-1.00" shape="2115.74,315.24 2128.58,314.69 2128.00,301.43 2115.17,301.99 2115.74,315.24"/>
    <poly id="347584413" type="building" color="255,230,230" fill="1" layer="-1.00" shape="2099.83,173.33 2099.77,195.54 2108.69,195.56 2108.76,173.35 2099.83,173.33"/>
    <poly id="347584415" type="building" color="255,230,230" fill="1" layer="-1.00" shape="2212.85,196.33 2227.86,193.82 2226.11,183.47 2211.10,185.97 2212.85,196.33"/>
    <poly id="347584427" type="building" color="255,230,230" fill="1" layer="-1.00" shape="2109.46,498.11 2110.74,519.29 2124.27,518.48 2123.00,497.30 2109.46,498.11"/>
    <poly id="347584457" type="building" color="255,230,230" fill="1" layer="-1.00" shape="2220.63,550.41 2242.40,548.82 2241.40,535.28 2219.62,536.88 2220.63,550.41"/>
    <poly id="347584473" type="building" color="255,230,230" fill="1" layer="-1.00" shape="2080.12,383.00 2099.67,381.16 2098.48,368.46 2078.91,370.29 2080.12,383.00"/>
    <poly id="347584489" type="building" color="255,230,230" fill="1" layer="-1.00" shape="2160.62,344.99 2160.99,359.47 2180.46,358.98 2180.10,344.50 2160.62,344.99"/>
    <poly id="347584495" type="building" color="255,230,230" fill="1" layer="-1.00" shape="2066.52,541.22 2069.31,569.68 2083.99,568.26 2081.18,539.79 2066.52,541.22"/>
    <poly id="347584540" type="building" color="255,230,230" fill="1" layer="-1.00" shape="2140.58,390.87 2161.55,389.03 2160.51,377.34 2139.53,379.18 2140.58,390.87"/>
    <poly id="347584542" type="building" color="255,230,230" fill="1" layer="-1.00" shape="2077.43,265.35 2077.44,286.63 2090.53,286.62 2090.52,265.34 2077.43,265.35"/>
    <poly id="347584546" type="building" color="255,230,230" fill="1" layer="-1.00" shape="2158.32,531.13 2144.61,531.38 2144.97,551.50 2158.68,551.26 2158.32,531.13"/>
    <poly id="347584557" type="building" color="255,230,230" fill="1" layer="-1.00" shape="2125.02,195.79 2124.83,214.30 2135.20,214.41 2135.39,195.90 2125.02,195.79"/>
    <poly id="347584571" type="building" color="255,230,230" fill="1" layer="-1.00" shape="2142.49,280.24 2156.65,284.48 2158.30,279.04 2144.14,274.80 2142.49,280.24"/>
    <poly id="347584578" type="building" color="255,230,230" fill="1" layer="-1.00" shape="2198.05,488.41 2185.75,488.95 2186.57,507.44 2198.88,506.90 2198.05,488.41"/>
    <poly id="347584580" type="building" color="255,230,230" fill="1" layer="-1.00" shape="2165.79,388.73 2165.41,406.60 2186.37,407.04 2186.74,389.18 2165.79,388.73"/>
    <poly id="347584608" type="building" color="255,230,230" fill="1" layer="-1.00" shape="2078.39,399.72 2101.89,397.80 2100.74,383.97 2077.24,385.89 2078.39,399.72"/>
    <poly id="347584614" type="building" color="255,230,230" fill="1" layer="-1.00" shape="2208.34,428.93 2222.32,428.06 2221.63,417.22 2207.65,418.11 2208.34,428.93"/>
    <poly id="347584622" type="building" color="255,230,230" fill="1" layer="-1.00" shape="2139.55,497.83 2140.14,514.13 2154.65,513.61 2154.06,497.31 2139.55,497.83"/>
    <poly id="347584625" type="building" color="255,230,230" fill="1" layer="-1.00" shape="2159.95,531.59 2160.32,552.07 2172.81,551.86 2172.45,531.37 2159.95,531.59"/>
    <poly id="347584629" type="building" color="255,230,230" fill="1" layer="-1.00" shape="2049.18,501.64 2061.99,500.00 2059.46,480.55 2046.66,482.19 2049.18,501.64"/>
    <poly id="347584631" type="building" color="255,230,230" fill="1" layer="-1.00" shape="2163.64,375.17 2184.50,373.34 2183.36,360.54 2162.50,362.37 2163.64,375.17"/>
    <poly id="347584634" type="building" color="255,230,230" fill="1" layer="-1.00" shape="2066.67,313.10 2069.42,325.12 2082.97,322.07 2080.22,310.05 2066.67,313.10"/>
    <poly id="347584640" type="building" color="255,230,230" fill="1" layer="-1.00" shape="2110.69,172.63 2112.44,190.84 2121.29,190.00 2119.53,171.79 2110.69,172.63"/>
    <poly id="347584646" type="building" color="255,230,230" fill="1" layer="-1.00" shape="2234.16,412.02 2235.53,435.48 2258.11,434.18 2256.75,410.72 2234.16,412.02"/>
    <poly id="347584650" type="building" color="255,230,230" fill="1" layer="-1.00" shape="2139.92,409.75 2163.40,408.85 2162.77,392.50 2139.28,393.40 2139.92,409.75"/>
    <poly id="347584653" type="building" color="255,230,230" fill="1" layer="-1.00" shape="2214.90,493.67 2234.18,492.57 2233.37,478.51 2214.10,479.59 2214.90,493.67"/>
    <poly id="347584655" type="building" color="255,230,230" fill="1" layer="-1.00" shape="2078.09,368.86 2098.94,367.25 2097.84,353.09 2076.97,354.70 2078.09,368.86"/>
    <poly id="347584662" type="building" color="255,230,230" fill="1" layer="-1.00" shape="2049.76,358.48 2063.05,357.48 2061.81,341.05 2048.52,342.05 2049.76,358.48"/>
    <poly id="347584670" type="building" color="255,230,230" fill="1" layer="-1.00" shape="2211.12,447.63 2232.78,445.91 2231.36,428.13 2209.70,429.84 2211.12,447.63"/>
    <poly id="347584682" type="building" color="255,230,230" fill="1" layer="-1.00" shape="2075.46,195.93 2075.27,214.12 2084.67,214.21 2084.85,196.03 2075.46,195.93"/>
    <poly id="347584694" type="building" color="255,230,230" fill="1" layer="-1.00" shape="2126.33,266.30 2125.94,292.81 2139.77,293.01 2140.16,266.50 2126.33,266.30"/>
    <poly id="347584705" type="building" color="255,230,230" fill="1" layer="-1.00" shape="2114.21,192.78 2112.86,213.86 2122.12,214.44 2123.46,193.38 2114.21,192.78"/>
    <poly id="348312192" type="building" color="255,230,230" fill="1" layer="-1.00" shape="2587.71,441.69 2585.79,465.14 2600.00,466.29 2601.93,442.85 2587.71,441.69"/>
    <poly id="348312260" type="building" color="255,230,230" fill="1" layer="-1.00" shape="2602.71,442.39 2617.73,443.13 2618.86,420.60 2603.83,419.85 2602.71,442.39"/>
    <poly id="348312893" type="building" color="255,230,230" fill="1" layer="-1.00" shape="2556.47,466.25 2558.72,479.90 2563.56,479.11 2561.31,465.46 2556.47,466.25"/>
    <poly id="348466620" type="building" color="255,230,230" fill="1" layer="-1.00" shape="2047.66,211.70 2056.08,211.36 2055.49,196.88 2047.06,197.21 2047.66,211.70"/>
    <poly id="348497129" type="building" color="255,230,230" fill="1" layer="-1.00" shape="2351.40,405.36 2379.84,422.94 2388.62,408.94 2360.16,391.34 2351.40,405.36"/>
    <poly id="348497142" type="building" color="255,230,230" fill="1" layer="-1.00" shape="2386.16,397.86 2411.48,364.21 2387.73,346.58 2362.42,380.23 2386.16,397.86"/>
    <poly id="348497156" type="building" color="255,230,230" fill="1" layer="-1.00" shape="2252.57,555.63 2263.57,557.04 2267.20,528.78 2285.23,531.07 2287.32,514.87 2247.30,509.78 2243.95,535.79 2254.95,537.20 2252.57,555.63"/>
    <poly id="348553683" type="building" color="255,230,230" fill="1" layer="-1.00" shape="2505.55,172.95 2507.40,215.76 2531.12,180.50 2505.55,172.95"/>
    <poly id="348553704" type="building" color="255,230,230" fill="1" layer="-1.00" shape="2293.32,208.87 2319.41,206.41 2318.09,192.59 2291.99,195.06 2293.32,208.87"/>
    <poly id="348553708" type="building" color="255,230,230" fill="1" layer="-1.00" shape="2328.99,188.97 2331.53,209.92 2342.44,208.61 2339.90,187.66 2328.99,188.97"/>
    <poly id="348553711" type="building" color="255,230,230" fill="1" layer="-1.00" shape="2321.51,191.31 2322.96,208.21 2328.41,207.76 2326.97,190.84 2321.51,191.31"/>
    <poly id="348553713" type="building" color="255,230,230" fill="1" layer="-1.00" shape="2343.75,185.73 2347.40,209.27 2358.11,207.63 2354.47,184.10 2343.75,185.73"/>
    <poly id="348553716" type="building" color="255,230,230" fill="1" layer="-1.00" shape="2223.18,239.15 2305.78,269.81 2322.74,224.67 2240.34,204.17 2223.18,239.15"/>
    <poly id="348553727" type="building" color="255,230,230" fill="1" layer="-1.00" shape="2451.36,252.16 2469.77,265.62 2479.41,252.61 2461.00,239.14 2451.36,252.16"/>
    <poly id="350053651" type="water" color="181,209,209" fill="0" layer="-4.00" shape="2473.01,274.17 2513.11,330.68"/>
    <poly id="350053652" type="water" color="181,209,209" fill="0" layer="-4.00" shape="2513.11,330.68 2536.73,340.94 2543.99,350.60"/>
    <poly id="352462989" type="building" color="255,230,230" fill="1" layer="-1.00" shape="2270.33,322.30 2266.80,332.39 2297.66,343.03 2301.19,332.94 2270.33,322.30"/>
    <poly id="352463033" type="building" color="255,230,230" fill="1" layer="-1.00" shape="2231.21,566.46 2243.62,565.45 2242.36,550.18 2229.96,551.18 2231.21,566.46"/>
    <poly id="352463054" type="building" color="255,230,230" fill="1" layer="-1.00" shape="2303.30,365.12 2320.46,370.94 2329.88,343.52 2312.73,337.70 2303.30,365.12"/>
    <poly id="352463074" type="building" color="255,230,230" fill="1" layer="-1.00" shape="2096.66,508.85 2109.24,508.45 2108.87,496.97 2096.30,497.36 2096.66,508.85"/>
    <poly id="352463089" type="building" color="255,230,230" fill="1" layer="-1.00" shape="2267.01,362.83 2288.04,370.30 2294.18,353.22 2273.16,345.75 2267.01,362.83"/>
    <poly id="362886541" type="tourism" color="207,245,201" fill="1" layer="-2.00" shape="2263.70,445.73 2259.78,376.79 2316.96,394.00 2305.90,429.79 2263.70,445.73"/>
    <poly id="362886756" type="natural" color="140,196,107" fill="1" layer="-4.00" shape="2199.53,386.26 2217.63,384.50 2216.10,368.89 2198.00,370.64 2199.53,386.26"/>
    <poly id="362886757" type="natural" color="140,196,107" fill="1" layer="-4.00" shape="2079.56,430.84 2103.61,428.76 2101.03,400.36 2077.00,402.60 2079.56,430.84"/>
    <poly id="362886758" type="natural" color="140,196,107" fill="1" layer="-4.00" shape="2107.50,411.24 2103.41,369.02 2125.82,366.88 2129.91,409.10 2107.50,411.24"/>
    <poi id="1474317196" type="amenity" color="237,199,199" layer="-1.00" x="2092.53" y="214.37"/>
    <poi id="1474328878" type="amenity" color="237,199,199" layer="-1.00" x="2189.47" y="282.27"/>
    <poi id="1813706463" type="amenity" color="237,199,199" layer="-1.00" x="2172.57" y="307.45"/>
    <poi id="1837440175" type="amenity" color="237,199,199" layer="-1.00" x="2096.14" y="318.53"/>
    <poi id="1837440510" type="amenity" color="237,199,199" layer="-1.00" x="2195.55" y="284.01"/>
    <poi id="2629857310" type="amenity" color="237,199,199" layer="-1.00" x="2207.82" y="290.65"/>
    <poi id="3024935598" type="amenity" color="237,199,199" layer="-1.00" x="2200.15" y="288.15"/>
    <poi id="307407601" type="amenity" color="237,199,199" layer="-1.00" x="2149.73" y="280.66"/>
    <poi id="946651243" type="shop" color="237,199,255" layer="-1.00" x="2164.65" y="243.97"/>
</shapes>
