<?xml version="1.0" encoding="UTF-8"?>

<!-- generated on Thu Nov 24 19:55:30 2016 by SUMO netconvert Version 0.19.0
<?xml version="1.0" encoding="UTF-8"?>

<configuration xmlns:xsi="http://www.w3.org/2001/XMLSchema-instance" xsi:noNamespaceSchemaLocation="http://sumo-sim.org/xsd/netconvertConfiguration.xsd">

    <input>
        <osm-files value="map.osm"/>
    </input>

    <output>
        <output-file value="map.net.xml"/>
    </output>

    <projection>
        <proj.utm value="true"/>
    </projection>

</configuration>
-->

<net version="0.13" xmlns:xsi="http://www.w3.org/2001/XMLSchema-instance" xsi:noNamespaceSchemaLocation="http://sumo-sim.org/xsd/net_file.xsd">

    <location netOffset="-782139.09,-1429086.01" convBoundary="0.00,0.00,4135.56,761.90" origBoundary="77.600092,12.914001,77.638174,12.920966" projParameter="+proj=utm +zone=43 +ellps=WGS84 +datum=WGS84 +units=m +no_defs"/>

    <edge id=":1123386062_0" function="internal">
        <lane id=":1123386062_0_0" index="0" speed="12.50" length="5.34" shape="2403.98,339.10 2399.89,335.72"/>
        <lane id=":1123386062_0_1" index="1" speed="12.50" length="5.34" shape="2405.06,335.98 2400.91,332.58"/>
    </edge>
    <edge id=":1123386062_2" function="internal">
        <lane id=":1123386062_2_0" index="0" speed="11.11" length="8.92" shape="2406.48,329.05 2399.89,335.72"/>
        <lane id=":1123386062_2_1" index="1" speed="11.11" length="8.92" shape="2405.99,325.79 2400.91,332.58"/>
    </edge>
    <edge id=":1123386064_0" function="internal">
        <lane id=":1123386064_0_0" index="0" speed="22.22" length="0.63" shape="2558.87,360.93 2558.38,360.12"/>
        <lane id=":1123386064_0_1" index="1" speed="22.22" length="0.63" shape="2561.53,359.00 2561.38,358.73"/>
    </edge>
    <edge id=":1472878458_0" function="internal">
        <lane id=":1472878458_0_0" index="0" allow="delivery" speed="8.33" length="9.62" shape="2556.22,403.94 2546.77,402.12"/>
    </edge>
    <edge id=":1472878458_1" function="internal">
        <lane id=":1472878458_1_0" index="0" allow="delivery" speed="8.33" length="10.17" shape="2556.22,403.94 2553.35,403.03 2551.54,401.55 2550.79,399.50 2551.10,396.88"/>
    </edge>
    <edge id=":1472878458_2" function="internal">
        <lane id=":1472878458_2_0" index="0" allow="delivery" speed="8.33" length="4.82" shape="2556.22,403.94 2555.15,402.90 2554.89,402.02 2555.45,401.28 2556.81,400.69"/>
    </edge>
    <edge id=":1472878458_3" function="internal">
        <lane id=":1472878458_3_0" index="0" allow="delivery" speed="8.33" length="4.96" shape="2554.45,397.16 2554.28,398.48 2554.62,399.51 2555.46,400.25 2556.81,400.69"/>
    </edge>
    <edge id=":1472878458_4" function="internal">
        <lane id=":1472878458_4_0" index="0" allow="delivery" speed="8.33" length="10.25" shape="2554.45,397.16 2553.31,399.78 2551.65,401.48 2549.47,402.26 2546.77,402.12"/>
    </edge>
    <edge id=":1472878458_5" function="internal">
        <lane id=":1472878458_5_0" index="0" allow="delivery" speed="8.33" length="4.91" shape="2554.45,397.16 2553.50,398.34 2552.63,398.69 2551.83,398.20 2551.10,396.88"/>
    </edge>
    <edge id=":1472878458_6" function="internal">
        <lane id=":1472878458_6_0" index="0" allow="delivery" speed="8.33" length="4.68" shape="2547.43,398.88 2548.75,398.98 2549.81,398.68 2550.59,397.98 2551.10,396.88"/>
    </edge>
    <edge id=":1472878458_7" function="internal">
        <lane id=":1472878458_7_0" index="0" allow="delivery" speed="8.33" length="9.56" shape="2547.43,398.88 2556.81,400.69"/>
    </edge>
    <edge id=":1472878458_8" function="internal">
        <lane id=":1472878458_8_0" index="0" allow="delivery" speed="8.33" length="4.82" shape="2547.43,398.88 2548.48,399.94 2548.72,400.83 2548.15,401.55 2546.77,402.12"/>
    </edge>
    <edge id=":1472878464_0" function="internal">
        <lane id=":1472878464_0_0" index="0" speed="22.22" length="3.36" shape="2420.48,459.36 2422.16,456.44"/>
    </edge>
    <edge id=":1472878464_1" function="internal">
        <lane id=":1472878464_1_0" index="0" speed="22.22" length="3.27" shape="2420.48,459.36 2422.56,456.84"/>
    </edge>
    <edge id=":1723790753_0" function="internal">
        <lane id=":1723790753_0_0" index="0" speed="22.22" length="3.00" shape="2415.33,403.28 2413.74,405.83"/>
        <lane id=":1723790753_0_1" index="1" speed="22.22" length="3.00" shape="2412.52,401.54 2410.94,404.09"/>
    </edge>
    <edge id=":1723790753_2" function="internal">
        <lane id=":1723790753_2_0" index="0" speed="22.22" length="3.29" shape="2413.68,402.26 2410.94,404.09"/>
    </edge>
    <edge id=":1723790759_0" function="internal">
        <lane id=":1723790759_0_0" index="0" speed="16.67" length="2.23" shape="2399.51,340.87 2400.25,341.66"/>
        <lane id=":1723790759_0_1" index="1" speed="16.67" length="2.23" shape="2398.41,343.98 2400.56,345.29"/>
        <lane id=":1723790759_0_2" index="2" speed="16.67" length="2.23" shape="2397.30,347.09 2399.99,348.60"/>
    </edge>
    <edge id=":1723790759_3" function="internal">
        <lane id=":1723790759_3_0" index="0" speed="19.44" length="3.09" shape="2397.30,347.09 2400.01,348.56"/>
    </edge>
    <edge id=":1723795924_0" function="internal">
        <lane id=":1723795924_0_0" index="0" speed="16.67" length="3.13" shape="2462.10,359.52 2459.26,358.20"/>
    </edge>
    <edge id=":1723795924_1" function="internal">
        <lane id=":1723795924_1_0" index="0" speed="11.11" length="2.24" shape="2462.52,359.22 2459.26,358.20"/>
        <lane id=":1723795924_1_1" index="1" speed="11.11" length="2.24" shape="2462.74,355.81 2460.34,355.08"/>
        <lane id=":1723795924_1_2" index="2" speed="11.11" length="2.24" shape="2462.19,352.14 2461.42,351.96"/>
    </edge>
    <edge id=":1723795929_0" function="internal">
        <lane id=":1723795929_0_0" index="0" speed="16.67" length="9.08" shape="2550.50,386.67 2559.10,388.45"/>
        <lane id=":1723795929_0_1" index="1" speed="16.67" length="9.08" shape="2549.70,389.88 2558.59,391.71"/>
        <lane id=":1723795929_0_2" index="2" speed="16.67" length="9.08" shape="2548.90,393.08 2558.08,394.97"/>
    </edge>
    <edge id=":1723795929_3" function="internal">
        <lane id=":1723795929_3_0" index="0" allow="delivery" speed="12.50" length="7.40" shape="2548.90,393.08 2551.60,393.91 2553.44,394.83 2554.40,395.85 2554.50,396.97"/>
    </edge>
    <edge id=":1723795929_4" function="internal">
        <lane id=":1723795929_4_0" index="0" speed="19.44" length="9.19" shape="2549.44,390.93 2558.59,391.71"/>
    </edge>
    <edge id=":1723795929_5" function="internal">
        <lane id=":1723795929_5_0" index="0" allow="delivery" speed="15.28" length="9.61" shape="2549.44,390.93 2552.28,391.37 2554.08,392.53 2554.82,394.39 2554.50,396.97"/>
    </edge>
    <edge id=":1723795929_6" function="internal">
        <lane id=":1723795929_6_0" index="0" speed="12.50" length="7.70" shape="2551.15,396.68 2551.87,395.57 2553.27,394.92 2555.34,394.72 2558.08,394.97"/>
    </edge>
    <edge id=":1723795929_7" function="internal">
        <lane id=":1723795929_7_0" index="0" allow="delivery" speed="8.33" length="4.91" shape="2551.15,396.68 2552.09,395.50 2552.97,395.15 2553.77,395.64 2554.50,396.97"/>
    </edge>
    <edge id=":1757013274_0" function="internal">
        <lane id=":1757013274_0_0" index="0" speed="5.56" length="4.82" shape="2196.89,171.47 2197.45,170.09 2198.17,169.52 2199.06,169.75 2200.12,170.80"/>
    </edge>
    <edge id=":1757013275_0" function="internal">
        <lane id=":1757013275_0_0" index="0" speed="5.56" length="4.82" shape="2375.36,172.57 2376.73,173.16 2377.29,173.89 2377.03,174.78 2375.97,175.82"/>
    </edge>
    <edge id=":2110371293_0" function="internal">
        <lane id=":2110371293_0_0" index="0" allow="delivery" speed="8.33" length="4.82" shape="4135.42,246.73 4136.73,247.44 4137.21,248.23 4136.86,249.09 4135.70,250.01"/>
    </edge>
    <edge id=":247989224_0" function="internal">
        <lane id=":247989224_0_0" index="0" speed="13.89" length="0.10" shape="1640.74,250.40 1640.75,250.40"/>
        <lane id=":247989224_0_1" index="1" speed="13.89" length="0.10" shape="1640.42,247.11 1640.42,247.11"/>
    </edge>
    <edge id=":2509423116_0" function="internal">
        <lane id=":2509423116_0_0" index="0" speed="8.33" length="4.82" shape="2011.75,220.01 2010.57,219.11 2010.21,218.26 2010.67,217.46 2011.96,216.72"/>
    </edge>
    <edge id=":2509423118_0" function="internal">
        <lane id=":2509423118_0_0" index="0" speed="13.89" length="9.85" shape="2156.27,222.26 2156.54,232.11"/>
    </edge>
    <edge id=":2509423118_1" function="internal">
        <lane id=":2509423118_1_0" index="0" speed="11.11" length="10.96" shape="2156.27,222.26 2156.01,225.30 2154.82,227.42 2152.70,228.59 2149.66,228.84"/>
    </edge>
    <edge id=":2509423118_2" function="internal">
        <lane id=":2509423118_2_0" index="0" speed="13.89" length="4.82" shape="2156.27,222.26 2155.52,223.54 2154.72,224.00 2153.87,223.64 2152.97,222.45"/>
    </edge>
    <edge id=":2509423118_3" function="internal">
        <lane id=":2509423118_3_0" index="0" speed="11.11" length="5.15" shape="2149.87,225.54 2151.30,225.43 2152.30,224.88 2152.85,223.88 2152.97,222.45"/>
    </edge>
    <edge id=":2509423118_4" function="internal">
        <lane id=":2509423118_4_0" index="0" speed="11.11" length="10.54" shape="2149.87,225.54 2152.80,226.12 2154.90,227.40 2156.14,229.40 2156.54,232.11"/>
    </edge>
    <edge id=":2509423118_5" function="internal">
        <lane id=":2509423118_5_0" index="0" speed="8.33" length="4.82" shape="2149.87,225.54 2151.05,226.45 2151.41,227.30 2150.94,228.09 2149.66,228.84"/>
    </edge>
    <edge id=":2509423118_6" function="internal">
        <lane id=":2509423118_6_0" index="0" speed="11.11" length="5.44" shape="2153.24,232.08 2153.03,230.75 2152.36,229.76 2151.23,229.13 2149.66,228.84"/>
    </edge>
    <edge id=":2509423118_7" function="internal">
        <lane id=":2509423118_7_0" index="0" speed="13.89" length="9.63" shape="2153.24,232.08 2152.97,222.45"/>
    </edge>
    <edge id=":2509423118_8" function="internal">
        <lane id=":2509423118_8_0" index="0" speed="13.89" length="4.82" shape="2153.24,232.08 2154.08,230.85 2154.90,230.44 2155.73,230.86 2156.54,232.11"/>
    </edge>
    <edge id=":2509423121_0" function="internal">
        <lane id=":2509423121_0_0" index="0" speed="22.22" length="3.46" shape="2485.87,280.37 2484.23,283.67"/>
        <lane id=":2509423121_0_1" index="1" speed="22.22" length="3.46" shape="2482.96,278.81 2481.51,281.70"/>
    </edge>
    <edge id=":2509423121_2" function="internal">
        <lane id=":2509423121_2_0" index="0" speed="15.28" length="3.98" shape="2482.96,278.81 2483.94,283.46"/>
        <lane id=":2509423121_2_1" index="1" speed="15.28" length="3.98" shape="2482.96,278.81 2481.27,281.53"/>
    </edge>
    <edge id=":2619300315_0" function="internal">
        <lane id=":2619300315_0_0" index="0" speed="13.89" length="0.10" shape="2369.53,463.08 2369.45,463.02"/>
    </edge>
    <edge id=":2619300315_1" function="internal">
        <lane id=":2619300315_1_0" index="0" speed="13.89" length="2.41" shape="2369.53,463.08 2369.05,461.67 2369.22,460.76"/>
    </edge>
    <edge id=":2619300315_4" function="internal">
        <lane id=":2619300315_4_0" index="0" speed="13.89" length="2.41" shape="2369.22,460.76 2370.05,460.36 2371.53,460.45"/>
    </edge>
    <edge id=":2619300315_2" function="internal">
        <lane id=":2619300315_2_0" index="0" speed="13.89" length="0.31" shape="2371.28,460.27 2371.53,460.45"/>
    </edge>
    <edge id=":2619300315_3" function="internal">
        <lane id=":2619300315_3_0" index="0" speed="13.89" length="2.41" shape="2371.28,460.27 2371.86,461.65 2371.74,462.56"/>
    </edge>
    <edge id=":2619300315_5" function="internal">
        <lane id=":2619300315_5_0" index="0" speed="13.89" length="2.41" shape="2371.74,462.56 2370.94,463.02 2369.45,463.02"/>
    </edge>
    <edge id=":2619300318_0" function="internal">
        <lane id=":2619300318_0_0" index="0" speed="16.67" length="9.50" shape="2270.21,296.49 2279.22,299.49"/>
        <lane id=":2619300318_0_1" index="1" speed="16.67" length="9.50" shape="2269.16,299.62 2278.17,302.62"/>
        <lane id=":2619300318_0_2" index="2" speed="16.67" length="9.50" shape="2268.12,302.75 2277.13,305.75"/>
    </edge>
    <edge id=":2619300318_3" function="internal">
        <lane id=":2619300318_3_0" index="0" speed="15.28" length="7.85" shape="2268.12,302.75 2270.71,303.82 2272.42,305.00 2273.26,306.30 2273.21,307.72"/>
    </edge>
    <edge id=":2619300318_4" function="internal">
        <lane id=":2619300318_4_0" index="0" speed="15.28" length="9.10" shape="2270.08,306.69 2271.34,304.15 2273.10,302.62 2275.38,302.11 2278.17,302.62"/>
        <lane id=":2619300318_4_1" index="1" speed="15.28" length="9.10" shape="2270.08,306.69 2270.88,305.52 2272.33,304.97 2274.41,305.05 2277.13,305.75"/>
    </edge>
    <edge id=":2619300318_6" function="internal">
        <lane id=":2619300318_6_0" index="0" speed="13.89" length="4.82" shape="2270.08,306.69 2271.25,305.77 2272.16,305.64 2272.82,306.29 2273.21,307.72"/>
    </edge>
    <edge id=":2619300320_0" function="internal">
        <lane id=":2619300320_0_0" index="0" speed="13.89" length="0.10" shape="2362.22,458.20 2362.23,458.20"/>
    </edge>
    <edge id=":2619300320_1" function="internal">
        <lane id=":2619300320_1_0" index="0" speed="13.89" length="2.41" shape="2362.22,458.20 2361.65,456.82 2361.77,455.91"/>
    </edge>
    <edge id=":2619300320_4" function="internal">
        <lane id=":2619300320_4_0" index="0" speed="13.89" length="2.41" shape="2361.77,455.91 2362.57,455.45 2364.06,455.45"/>
    </edge>
    <edge id=":2619300320_2" function="internal">
        <lane id=":2619300320_2_0" index="0" speed="13.89" length="0.10" shape="2364.06,455.45 2364.06,455.45"/>
    </edge>
    <edge id=":2619300320_3" function="internal">
        <lane id=":2619300320_3_0" index="0" speed="13.89" length="2.41" shape="2364.06,455.45 2364.63,456.82 2364.51,457.74"/>
    </edge>
    <edge id=":2619300320_5" function="internal">
        <lane id=":2619300320_5_0" index="0" speed="13.89" length="2.41" shape="2364.51,457.74 2363.71,458.20 2362.23,458.20"/>
    </edge>
    <edge id=":2619300333_0" function="internal">
        <lane id=":2619300333_0_0" index="0" speed="13.89" length="11.11" shape="2267.35,449.21 2264.39,450.27 2262.06,450.93 2259.69,451.31 2256.55,451.52"/>
    </edge>
    <edge id=":2619300333_1" function="internal">
        <lane id=":2619300333_1_0" index="0" speed="13.89" length="7.74" shape="2267.35,449.21 2264.00,449.92 2261.54,449.27 2260.45,447.88"/>
    </edge>
    <edge id=":2619300333_2" function="internal">
        <lane id=":2619300333_2_0" index="0" speed="13.89" length="2.41" shape="2267.35,449.21 2265.91,448.86 2265.24,448.23"/>
    </edge>
    <edge id=":2619300333_9" function="internal">
        <lane id=":2619300333_9_0" index="0" speed="13.89" length="4.21" shape="2260.45,447.88 2259.97,447.27 2259.29,443.91"/>
    </edge>
    <edge id=":2619300333_10" function="internal">
        <lane id=":2619300333_10_0" index="0" speed="13.89" length="2.41" shape="2265.24,448.23 2265.35,447.31 2266.23,446.11"/>
    </edge>
    <edge id=":2619300333_3" function="internal">
        <lane id=":2619300333_3_0" index="0" speed="13.89" length="5.39" shape="2262.58,443.72 2262.89,445.23 2263.60,446.14 2264.71,446.43 2266.23,446.11"/>
    </edge>
    <edge id=":2619300333_4" function="internal">
        <lane id=":2619300333_4_0" index="0" speed="13.89" length="11.27" shape="2262.58,443.72 2262.37,447.03 2261.30,449.43 2259.36,450.93 2256.55,451.52"/>
    </edge>
    <edge id=":2619300333_5" function="internal">
        <lane id=":2619300333_5_0" index="0" speed="13.89" length="4.82" shape="2262.58,443.72 2261.83,445.00 2261.03,445.46 2260.19,445.10 2259.29,443.91"/>
    </edge>
    <edge id=":2619300333_6" function="internal">
        <lane id=":2619300333_6_0" index="0" speed="13.89" length="5.90" shape="2256.41,448.23 2257.76,447.91 2258.69,447.08 2259.20,445.75 2259.29,443.91"/>
    </edge>
    <edge id=":2619300333_7" function="internal">
        <lane id=":2619300333_7_0" index="0" speed="13.89" length="10.11" shape="2256.41,448.23 2259.39,448.05 2261.43,447.73 2263.41,447.13 2266.23,446.11"/>
    </edge>
    <edge id=":2619300333_8" function="internal">
        <lane id=":2619300333_8_0" index="0" speed="13.89" length="2.41" shape="2256.41,448.23 2257.68,449.00 2258.13,449.80"/>
    </edge>
    <edge id=":2619300333_11" function="internal">
        <lane id=":2619300333_11_0" index="0" speed="13.89" length="2.41" shape="2258.13,449.80 2257.75,450.65 2256.55,451.52"/>
    </edge>
    <edge id=":2619304351_0" function="internal">
        <lane id=":2619304351_0_0" index="0" speed="22.22" length="0.10" shape="2548.54,338.89 2548.50,338.81"/>
        <lane id=":2619304351_0_1" index="1" speed="22.22" length="0.10" shape="2551.53,337.50 2551.57,337.58"/>
    </edge>
    <edge id=":2971089260_0" function="internal">
        <lane id=":2971089260_0_0" index="0" speed="16.67" length="5.20" shape="2465.61,365.21 2468.82,369.31"/>
    </edge>
    <edge id=":2971089260_1" function="internal">
        <lane id=":2971089260_1_0" index="0" speed="11.11" length="5.79" shape="2465.61,365.21 2470.88,366.82"/>
        <lane id=":2971089260_1_1" index="1" speed="11.11" length="5.79" shape="2464.54,368.34 2470.08,370.03"/>
        <lane id=":2971089260_1_2" index="2" speed="11.11" length="5.79" shape="2463.47,371.46 2469.28,373.23"/>
    </edge>
    <edge id=":2971089260_4" function="internal">
        <lane id=":2971089260_4_0" index="0" speed="22.22" length="7.12" shape="2465.25,375.47 2468.82,369.31"/>
    </edge>
    <edge id=":306594280_0" function="internal">
        <lane id=":306594280_0_0" index="0" speed="19.44" length="10.18" shape="2435.92,354.88 2444.50,358.98"/>
        <lane id=":306594280_0_1" index="1" speed="19.44" length="10.18" shape="2435.92,354.88 2438.43,356.67 2439.57,358.90 2440.75,360.94 2443.41,362.15"/>
    </edge>
    <edge id=":306594280_2" function="internal">
        <lane id=":306594280_2_0" index="0" speed="13.89" length="9.52" shape="2435.92,354.88 2444.81,358.08"/>
        <lane id=":306594280_2_1" index="1" speed="13.89" length="9.52" shape="2434.77,357.98 2443.73,361.20"/>
        <lane id=":306594280_2_2" index="2" speed="13.89" length="9.52" shape="2433.63,361.07 2442.66,364.32"/>
    </edge>
    <edge id=":306611516_0" function="internal">
        <lane id=":306611516_0_0" index="0" speed="18.06" length="11.01" shape="2628.94,352.57 2625.78,351.79 2624.12,350.28 2623.97,348.04 2625.33,345.07"/>
    </edge>
    <edge id=":306611516_1" function="internal">
        <lane id=":306611516_1_0" index="0" speed="22.22" length="4.82" shape="2628.94,352.57 2627.80,351.62 2627.48,350.76 2627.98,349.98 2629.29,349.29"/>
    </edge>
    <edge id=":306611516_2" function="internal">
        <lane id=":306611516_2_0" index="0" speed="18.06" length="3.60" shape="2628.11,346.84 2627.67,347.81 2627.72,348.54 2628.26,349.04 2629.29,349.29"/>
    </edge>
    <edge id=":306611516_3" function="internal">
        <lane id=":306611516_3_0" index="0" speed="13.89" length="4.82" shape="2628.11,346.84 2626.75,347.44 2625.84,347.35 2625.36,346.56 2625.33,345.07"/>
    </edge>
    <edge id=":306611517_0" function="internal">
        <lane id=":306611517_0_0" index="0" speed="13.89" length="4.82" shape="2852.47,-0.94 2853.85,-1.49 2854.77,-1.35 2855.21,-0.54 2855.18,0.94"/>
    </edge>
    <edge id=":307407783_0" function="internal">
        <lane id=":307407783_0_0" index="0" speed="15.28" length="11.21" shape="2179.83,278.65 2179.88,274.80 2181.17,272.48 2183.71,271.67 2187.48,272.38"/>
        <lane id=":307407783_0_1" index="1" speed="15.28" length="11.21" shape="2179.83,278.65 2179.99,276.36 2181.14,275.08 2183.29,274.79 2186.44,275.51"/>
    </edge>
    <edge id=":307407783_2" function="internal">
        <lane id=":307407783_2_0" index="0" speed="13.89" length="4.82" shape="2179.83,278.65 2180.50,277.32 2181.27,276.81 2182.14,277.11 2183.11,278.24"/>
    </edge>
    <edge id=":307407783_3" function="internal">
        <lane id=":307407783_3_0" index="0" speed="16.67" length="10.49" shape="2178.31,266.06 2181.37,266.89 2183.45,267.53 2185.52,268.23 2188.53,269.25"/>
        <lane id=":307407783_3_1" index="1" speed="16.67" length="10.49" shape="2177.47,269.26 2180.48,270.07 2182.52,270.69 2184.53,271.38 2187.48,272.38"/>
        <lane id=":307407783_3_2" index="2" speed="16.67" length="10.49" shape="2176.64,272.45 2179.58,273.25 2181.58,273.86 2183.55,274.53 2186.44,275.51"/>
    </edge>
    <edge id=":307407783_6" function="internal">
        <lane id=":307407783_6_0" index="0" speed="15.28" length="9.23" shape="2176.64,272.45 2179.27,273.39 2181.23,274.67 2182.51,276.29 2183.11,278.24"/>
    </edge>
    <edge id=":307407794_0" function="internal">
        <lane id=":307407794_0_0" index="0" speed="22.22" length="11.07" shape="2226.83,606.94 2224.34,608.86 2222.42,610.30 2220.44,611.65 2217.76,613.27"/>
    </edge>
    <edge id=":307407794_1" function="internal">
        <lane id=":307407794_1_0" index="0" speed="18.06" length="8.07" shape="2226.83,606.94 2223.22,609.01 2220.48,609.04 2219.68,608.19"/>
    </edge>
    <edge id=":307407794_2" function="internal">
        <lane id=":307407794_2_0" index="0" speed="22.22" length="2.41" shape="2226.83,606.94 2225.34,607.04 2224.51,606.63"/>
    </edge>
    <edge id=":307407794_9" function="internal">
        <lane id=":307407794_9_0" index="0" speed="18.06" length="5.73" shape="2219.68,608.19 2218.62,607.04 2217.63,603.00"/>
    </edge>
    <edge id=":307407794_10" function="internal">
        <lane id=":307407794_10_0" index="0" speed="22.22" length="2.41" shape="2224.51,606.63 2224.34,605.73 2224.83,604.32"/>
    </edge>
    <edge id=":307407794_3" function="internal">
        <lane id=":307407794_3_0" index="0" speed="18.06" length="5.87" shape="2220.91,602.64 2221.33,604.36 2222.12,605.21 2223.29,605.20 2224.83,604.32"/>
    </edge>
    <edge id=":307407794_4" function="internal">
        <lane id=":307407794_4_0" index="0" speed="18.06" length="11.69" shape="2220.91,602.64 2221.05,606.41 2220.57,609.44 2219.48,611.73 2217.76,613.27"/>
    </edge>
    <edge id=":307407794_5" function="internal">
        <lane id=":307407794_5_0" index="0" speed="13.89" length="4.82" shape="2220.91,602.64 2220.22,603.96 2219.45,604.46 2218.58,604.14 2217.63,603.00"/>
    </edge>
    <edge id=":307407794_6" function="internal">
        <lane id=":307407794_6_0" index="0" speed="18.06" length="7.91" shape="2216.10,610.42 2217.02,609.48 2217.58,607.93 2217.78,605.77 2217.63,603.00"/>
    </edge>
    <edge id=":307407794_7" function="internal">
        <lane id=":307407794_7_0" index="0" speed="22.22" length="10.66" shape="2216.10,610.42 2218.73,608.83 2220.59,607.57 2222.39,606.20 2224.83,604.32"/>
    </edge>
    <edge id=":307407794_8" function="internal">
        <lane id=":307407794_8_0" index="0" speed="22.22" length="2.41" shape="2216.10,610.42 2217.59,610.51 2218.36,611.02"/>
    </edge>
    <edge id=":307407794_11" function="internal">
        <lane id=":307407794_11_0" index="0" speed="22.22" length="2.41" shape="2218.36,611.02 2218.41,611.94 2217.76,613.27"/>
    </edge>
    <edge id=":307407844_0" function="internal">
        <lane id=":307407844_0_0" index="0" speed="13.89" length="5.14" shape="2185.91,325.67 2185.48,324.40 2184.71,323.55 2183.60,323.10 2182.15,323.07"/>
    </edge>
    <edge id=":307407844_1" function="internal">
        <lane id=":307407844_1_0" index="0" speed="13.89" length="9.42" shape="2185.91,325.67 2184.52,316.35"/>
    </edge>
    <edge id=":307407844_2" function="internal">
        <lane id=":307407844_2_0" index="0" speed="13.89" length="2.41" shape="2185.91,325.67 2186.51,324.31 2187.25,323.76"/>
    </edge>
    <edge id=":307407844_9" function="internal">
        <lane id=":307407844_9_0" index="0" speed="13.89" length="2.41" shape="2187.25,323.76 2188.13,324.02 2189.16,325.09"/>
    </edge>
    <edge id=":307407844_3" function="internal">
        <lane id=":307407844_3_0" index="0" speed="13.89" length="9.25" shape="2187.79,315.95 2189.16,325.09"/>
    </edge>
    <edge id=":307407844_4" function="internal">
        <lane id=":307407844_4_0" index="0" speed="13.89" length="6.98" shape="2187.79,315.95 2187.74,318.80 2186.78,320.94 2185.37,322.02"/>
    </edge>
    <edge id=":307407844_5" function="internal">
        <lane id=":307407844_5_0" index="0" speed="13.89" length="2.41" shape="2187.79,315.95 2187.12,317.28 2186.36,317.79"/>
    </edge>
    <edge id=":307407844_10" function="internal">
        <lane id=":307407844_10_0" index="0" speed="13.89" length="3.42" shape="2185.37,322.02 2184.92,322.36 2182.15,323.07"/>
    </edge>
    <edge id=":307407844_11" function="internal">
        <lane id=":307407844_11_0" index="0" speed="13.89" length="2.41" shape="2186.36,317.79 2185.49,317.48 2184.52,316.35"/>
    </edge>
    <edge id=":307407844_6" function="internal">
        <lane id=":307407844_6_0" index="0" speed="13.89" length="5.02" shape="2181.79,319.79 2183.13,319.45 2184.03,318.76 2184.49,317.73 2184.52,316.35"/>
    </edge>
    <edge id=":307407844_7" function="internal">
        <lane id=":307407844_7_0" index="0" speed="13.89" length="10.20" shape="2181.79,319.79 2184.62,319.87 2186.79,320.77 2188.30,322.52 2189.16,325.09"/>
    </edge>
    <edge id=":307407844_8" function="internal">
        <lane id=":307407844_8_0" index="0" speed="13.89" length="4.82" shape="2181.79,319.79 2183.11,320.48 2183.61,321.25 2183.29,322.12 2182.15,323.07"/>
    </edge>
    <edge id=":307408086_0" function="internal">
        <lane id=":307408086_0_0" index="0" speed="13.89" length="5.58" shape="2214.62,453.31 2213.30,453.60 2212.35,454.35 2211.77,455.56 2211.56,457.22"/>
    </edge>
    <edge id=":307408086_1" function="internal">
        <lane id=":307408086_1_0" index="0" speed="13.89" length="9.72" shape="2214.62,453.31 2204.95,454.31"/>
    </edge>
    <edge id=":307408086_2" function="internal">
        <lane id=":307408086_2_0" index="0" speed="13.89" length="7.00" shape="2214.62,453.31 2211.92,453.04 2209.84,451.96 2208.64,450.43"/>
    </edge>
    <edge id=":307408086_3" function="internal">
        <lane id=":307408086_3_0" index="0" speed="13.89" length="2.41" shape="2214.62,453.31 2213.35,452.54 2212.90,451.73"/>
    </edge>
    <edge id=":307408086_16" function="internal">
        <lane id=":307408086_16_0" index="0" speed="13.89" length="3.26" shape="2208.64,450.43 2208.37,450.08 2207.51,447.40"/>
    </edge>
    <edge id=":307408086_17" function="internal">
        <lane id=":307408086_17_0" index="0" speed="13.89" length="2.41" shape="2212.90,451.73 2213.28,450.89 2214.48,450.01"/>
    </edge>
    <edge id=":307408086_4" function="internal">
        <lane id=":307408086_4_0" index="0" speed="13.89" length="5.44" shape="2210.76,446.82 2211.22,448.27 2211.99,449.28 2213.07,449.86 2214.48,450.01"/>
    </edge>
    <edge id=":307408086_5" function="internal">
        <lane id=":307408086_5_0" index="0" speed="13.89" length="10.46" shape="2210.76,446.82 2211.26,449.82 2211.51,451.99 2211.58,454.18 2211.56,457.22"/>
    </edge>
    <edge id=":307408086_6" function="internal">
        <lane id=":307408086_6_0" index="0" speed="13.89" length="10.86" shape="2210.76,446.82 2210.82,449.69 2209.88,451.90 2207.92,453.44 2204.95,454.31"/>
    </edge>
    <edge id=":307408086_7" function="internal">
        <lane id=":307408086_7_0" index="0" speed="13.89" length="4.82" shape="2210.76,446.82 2210.17,448.18 2209.43,448.74 2208.54,448.47 2207.51,447.40"/>
    </edge>
    <edge id=":307408086_8" function="internal">
        <lane id=":307408086_8_0" index="0" speed="13.89" length="5.45" shape="2204.44,451.05 2205.99,450.61 2207.02,449.85 2207.53,448.78 2207.51,447.40"/>
    </edge>
    <edge id=":307408086_9" function="internal">
        <lane id=":307408086_9_0" index="0" speed="13.89" length="10.10" shape="2204.44,451.05 2207.39,450.59 2209.44,450.32 2211.50,450.16 2214.48,450.01"/>
    </edge>
    <edge id=":307408086_10" function="internal">
        <lane id=":307408086_10_0" index="0" speed="13.89" length="7.58" shape="2204.44,451.05 2207.59,451.01 2209.83,452.03 2210.89,453.70"/>
    </edge>
    <edge id=":307408086_11" function="internal">
        <lane id=":307408086_11_0" index="0" speed="13.89" length="2.41" shape="2204.44,451.05 2205.79,451.67 2206.33,452.42"/>
    </edge>
    <edge id=":307408086_18" function="internal">
        <lane id=":307408086_18_0" index="0" speed="13.89" length="3.63" shape="2210.89,453.70 2211.15,454.10 2211.56,457.22"/>
    </edge>
    <edge id=":307408086_19" function="internal">
        <lane id=":307408086_19_0" index="0" speed="13.89" length="2.41" shape="2206.33,452.42 2206.05,453.30 2204.95,454.31"/>
    </edge>
    <edge id=":307408086_12" function="internal">
        <lane id=":307408086_12_0" index="0" speed="13.89" length="5.21" shape="2208.26,457.18 2208.07,455.73 2207.45,454.77 2206.41,454.29 2204.95,454.31"/>
    </edge>
    <edge id=":307408086_13" function="internal">
        <lane id=":307408086_13_0" index="0" speed="13.89" length="9.81" shape="2208.26,457.18 2207.51,447.40"/>
    </edge>
    <edge id=":307408086_14" function="internal">
        <lane id=":307408086_14_0" index="0" speed="13.89" length="10.68" shape="2208.26,457.18 2208.68,454.14 2209.86,451.94 2211.79,450.56 2214.48,450.01"/>
    </edge>
    <edge id=":307408086_15" function="internal">
        <lane id=":307408086_15_0" index="0" speed="13.89" length="4.82" shape="2208.26,457.18 2209.10,455.95 2209.93,455.55 2210.75,455.98 2211.56,457.22"/>
    </edge>